! File generated by DesignBuilder - 7.0.2.006 17/04/2024 - 15:42:37
! Source file: \\ipeseserv5\Desktop Share\cterrier\data\Swice\DesignBuilder\CELLS_v1_noHVAC.dsb

! Geometry convention template : Simple
! Zone geometry and surface areas : 2-Outer
! Zone volume calculation method : 2-Outer
! Zone floor area calculation method : 2-Outer
! Window to wall ratio method : 1-Inner

Version, 9.4.0.002;                               !- Version Identifier

RunPeriod,                                        !- Annual simulation
   Fribourg (01-01:31-12),                        !- Location
   1,1, 2002,                                     !- Start Month , Day
   12,31, 2002,                                   !- End Month , Day
   ,                                              !- Day of Week for Start Day
   No,                                            !- Use weather file holidays/special day periods
   No,                                            !- Use WeatherFile DaylightSavingPeriod - will use daylight saving time shown below
   Yes,                                           !- Apply Weekend Holiday Rule - will reassign weekend holidays to Monday
   Yes,                                           !- use weather file rain indicators
   Yes,                                           !- use weather file snow indicators
   No;                                            !- Treat Weather as Actual

RunPeriodControl:DaylightSavingTime, Last Sunday in March,Last Sunday in October;  !- Daylight saving dates - one hour is added to local mean time to obtain the locally observed time during this period

! Hourly weather file: C:\ProgramData\DesignBuilder\Weather Data\-_FRIBOURG_MN7.epw

Site:Location,Fribourg (01-01:31-12)  (01-01:31-12),  !- Location Name
   46.25,                                         !- Latitude
   6.13,                                          !- Longitude
   1,                                             !- Time Zone
   416;                                           !- Elevation {m}

Site:GroundTemperature:BuildingSurface,           !- Annual ground temperatures - 1 value for each month
   18,                                            !- Jan ground temperature
   18,                                            !- Feb ground temperature
   18,                                            !- Mar ground temperature
   18,                                            !- Apr ground temperature
   18,                                            !- May ground temperature
   18,                                            !- Jun ground temperature
   18,                                            !- Jul ground temperature
   18,                                            !- Aug ground temperature
   18,                                            !- Sep ground temperature
   18,                                            !- Oct ground temperature
   18,                                            !- Nov ground temperature
   18;                                            !- Dec ground temperature

Site:GroundTemperature:Deep,                      !- Annual ground temperatures - 1 value for each month
   14,                                            !- Jan deep ground temperature
   14,                                            !- Feb deep ground temperature
   14,                                            !- Mar deep ground temperature
   14,                                            !- Apr deep ground temperature
   14,                                            !- May deep ground temperature
   14,                                            !- Jun deep ground temperature
   14,                                            !- Jul deep ground temperature
   14,                                            !- Aug deep ground temperature
   14,                                            !- Sep deep ground temperature
   14,                                            !- Oct deep ground temperature
   14,                                            !- Nov deep ground temperature
   14;                                            !- Dec deep ground temperature

Site:GroundTemperature:Shallow,                   !- Annual ground temperatures - 1 value for each month
   14,                                            !- Jan shallow ground temperature
   14,                                            !- Feb shallow ground temperature
   14,                                            !- Mar shallow ground temperature
   14,                                            !- Apr shallow ground temperature
   14,                                            !- May shallow ground temperature
   14,                                            !- Jun shallow ground temperature
   14,                                            !- Jul shallow ground temperature
   14,                                            !- Aug shallow ground temperature
   14,                                            !- Sep shallow ground temperature
   14,                                            !- Oct shallow ground temperature
   14,                                            !- Nov shallow ground temperature
   14;                                            !- Dec shallow ground temperature

Site:GroundTemperature:FCfactorMethod,            !- Annual ground temperatures - 1 value for each month
   7.2,                                           !- January FCfactorMethod ground temperature {C}
   5.4,                                           !- Februry FCfactorMethod ground temperature {C}
   4.7,                                           !- March FCfactorMethod ground temperature {C}
   5.4,                                           !- April FCfactorMethod ground temperature {C}
   7.2,                                           !- May FCfactorMethod ground temperature {C}
   9.7,                                           !- June FCfactorMethod ground temperature {C}
   12.2,                                          !- July FCfactorMethod ground temperature {C}
   14.0,                                          !- August FCfactorMethod ground temperature {C}
   14.7,                                          !- September FCfactorMethod ground temperature {C}
   14.0,                                          !- October FCfactorMethod ground temperature {C}
   12.2,                                          !- November FCfactorMethod ground temperature {C}
   9.7;                                           !- December FCfactorMethod ground temperature {C}

Site:GroundReflectance,                           !- Annual ground reflectances - 1 value for each month
   0.2,                                           !- Jan ground reflectance
   0.2,                                           !- Feb ground reflectance
   0.2,                                           !- Mar ground reflectance
   0.2,                                           !- Apr ground reflectance
   0.2,                                           !- May ground reflectance
   0.2,                                           !- Jun ground reflectance
   0.2,                                           !- Jul ground reflectance
   0.2,                                           !- Aug ground reflectance
   0.2,                                           !- Sep ground reflectance
   0.2,                                           !- Oct ground reflectance
   0.2,                                           !- Nov ground reflectance
   0.2;                                           !- Dec ground reflectance

Site:GroundReflectance:SnowModifier,
   2.0,                                           !- Ground Reflected Solar Modifier
   2.0;                                           !- Daylighting Ground Reflected Solar Modifier

SimulationControl,
   Yes,                                           !- Do the zone sizing calculation
   Yes,                                           !- Do the system sizing calculation
   No,                                            !- Do the plant sizing calculation
   No,                                            !- Do the design day calculation
   Yes;                                           !- Do the weather file calculation


SizingPeriod:DesignDay, Summer Design Day in Fribourg (01-01:31-12) Jul,  !- Design Day Name
   7,                                             !- Month
   15,                                            !- Day of Month
   SummerDesignDay,                               !- Day Type -- used for schedules
   30.8,                                          !- Maximum Dry-Bulb Temperature {C}
   11.3,                                          !- Daily Dry-Bulb Temperature Range {C}
   ,                                              !- Dry-Bulb Temperature Range Modifier Type
   ,                                              !- Dry-Bulb Temperature Range Modifier Schedule
   WetBulb,                                       !- Humidity Condition Type
   19.3,                                          !- Wetbulb at Maximum Dry-Bulb{C}
   ,                                              !- Humidity Condition Day Schedule Name
   ,                                              !- Humidity Ratio at Maximum Dry-Bulb
   ,                                              !- Enthalpy Ratio at Maximum Dry-Bulb
   ,                                              !- Daily Wet-Bulb Temperature Range
   96426.3,                                       !- Barometric Pressure {N/M**2}
   0,                                             !- Wind Speed {m/s}
   0,                                             !- Wind Direction {Degrees N=0, S=180}
   No,                                            !- Rain Indicator
   No,                                            !- Snow on ground indicator
   Yes,                                           !- Daylight Savings Time Indicator
   ASHRAEClearSky,                                !- Solar Model Indicator
   ,                                              !- Beam Solar Day Schedule Name
   ,                                              !- Diffuse Solar Day Schedule Name
   ,                                              !- ASHRAE Clear Sky Optical Depth for Beam Irradiance (taub)
   ,                                              !- ASHRAE Clear Sky Optical Depth for Diffuse Irradiance (taud)
   0.98;                                          !- Clearness {0.0 to 1.2}

SizingPeriod:DesignDay, Winter Design Day in Fribourg (01-01:31-12),  !- Design Day Name
   1,                                             !- Month
   15,                                            !- Day of Month
   WinterDesignDay,                               !- Day Type -- used for schedules
   -6.2,                                          !- Max Dry-Bulb {C}
   0,                                             !- Daily Temp Range {C}
   ,                                              !- Dry-Bulb Temperature Range Modifier Type
   ,                                              !- Dry-Bulb Temperature Range Modifier Schedule
   WetBulb,                                       !- Humidity Condition Type
   -6.2,                                          !- Wet-Bulb at Max {C}
   ,                                              !- Humidity Condition Day Schedule Name
   ,                                              !- Humidity Ratio at Maximum Dry-Bulb
   ,                                              !- Enthalpy Ratio at Maximum Dry-Bulb
   ,                                              !- Daily Wet-Bulb Temperature Range
   96426.3,                                       !- Barometric Pressure {N/M**2}
   11.2,                                          !- Wind Speed {M/Sec}
   0,                                             !- Wind Direction {Degrees N=0, S=180}
   No,                                            !- Rain Indicator
   No,                                            !- Snow on ground indicator
   No,                                            !- Daylight Savings Time Indicator
   ,                                              !- Solar Model Indicator
   ,                                              !- Beam Solar Day Schedule Name
   ,                                              !- Diffuse Solar Day Schedule Name
   ,                                              !- ASHRAE Clear Sky Optical Depth for Beam Irradiance (taub)
   ,                                              !- ASHRAE Clear Sky Optical Depth for Diffuse Irradiance (taud)
   0;                                             !- Clearness {0.0 to 1.2} - gives no sun (but does include long wave radiant heat exchange with sky)

Timestep, 2;                                      !- Timesteps/hour

ConvergenceLimits,
   1,                                             !- Minimum System Time Step (0=same as zone time step)
   25;                                            !- Maximum HVAC Iterations (1=min, 20=default)

ScheduleTypeLimits, Any Number;                         ! Not limited
ScheduleTypeLimits, Fraction,     0.0, 1.0, CONTINUOUS;
ScheduleTypeLimits, Temperature,  -60, 200, CONTINUOUS;
ScheduleTypeLimits, Control Type,   0,   4, DISCRETE;
ScheduleTypeLimits, On/Off,         0,   1, DISCRETE;

Schedule:Compact, 
      On,                                         ! Name
      Any Number,                                 ! Type
      Through: 12/31,                             ! Type
      For: AllDays,                               ! All days in year
      Until: 24:00,                               ! All hours in day
       1;     

Schedule:Compact, 
      Off,                                        ! Name
      Any Number,                                 ! Type
      Through: 12/31,                             ! Type
      For: AllDays,                               ! All days in year
      Until: 24:00,                               ! All hours in day
       0;     

Schedule:Compact, 
      Work efficiency,                            ! Name
      Any Number,                                 ! Type
      Through: 12/31,                             ! Type
      For: AllDays,                               ! All days in year
      Until: 24:00,                               ! All hours in day
       0;     

Schedule:Compact,
      OpaqueShade,                                ! Name
      Any Number,                                 ! Type
      Through: 12/31,                             ! Type
      For: AllDays,                               ! All days in year
      Until: 24:00,                               ! All hours in day
       0;     
       
Schedule:Compact,
    Zone Comfort Control Type Sched,              !- Name
    Control Type,                                 !- Schedule Type Limits Name
    Through: 12/31,                               !- Field 1
    For: AllDays,                                 !- Field 2
    Until: 24:00,                                 !- Field 3
    4;                                            !- Field 4

Schedule:Compact,
    Design Days Only,                             !- Name
    Any Number,                                   !- Schedule Type Limits Name
    Through: 12/31,                               !- Field 1
    For: SummerDesignDay WinterDesignDay,         !- Field 2
    Until: 24:00,                                 !- Field 3
    1,                                            !- Field 4
    For: AllOtherDays,                            !- Field 2
    Until: 24:00,                                 !- Field 3
    0;
      
! off heating day
Schedule:Day:Hourly,  0, Any Number,
   0,0,0,0,0,0,0,0,0,0,0,0,0,0,0,0,0,0,0,0,0,0,0,0;

! off cooling day
Schedule:Day:Hourly,  50, Any Number,
   50,50,50,50,50,50,50,50,50,50,50,50,50,50,50,50,50,50,50,50,50,50,50,50;

! used in seasonal schedules
Schedule:Day:Hourly,  Off, Fraction,
   0,0,0,0,0,0,0,0,0,0,0,0,0,0,0,0,0,0,0,0,0,0,0,0;

Schedule:Week:Daily, Off,
   Off,Off,Off,Off,
   Off,Off,Off,Off,
   Off,Off,Off,Off;

! -------------------- Control type schedules (for heating & cooling) ----------------------

Schedule:Day:Hourly, Summer Control Type Day Sch, Control Type,
   4,4,4,4,4,4,4,4,4,4,4,4,4,4,4,4,4,4,4,4,4,4,4,4;

Schedule:Day:Hourly, Winter Control Type Day Sch, Control Type,
   4,4,4,4,4,4,4,4,4,4,4,4,4,4,4,4,4,4,4,4,4,4,4,4;

Schedule:Day:Hourly, Summer Control Type Day Sch - cool, Control Type,
   2,2,2,2,2,2,2,2,2,2,2,2,2,2,2,2,2,2,2,2,2,2,2,2;

Schedule:Day:Hourly, Winter Control Type Day Sch - heat, Control Type,
   1,1,1,1,1,1,1,1,1,1,1,1,1,1,1,1,1,1,1,1,1,1,1,1;

Schedule:Week:Daily, Summer Control Type Week Sch,
   Summer Control Type Day Sch,Summer Control Type Day Sch,Summer Control Type Day Sch,
   Summer Control Type Day Sch,Summer Control Type Day Sch,Summer Control Type Day Sch,
   Summer Control Type Day Sch,Summer Control Type Day Sch,Summer Control Type Day Sch,
   Summer Control Type Day Sch,Summer Control Type Day Sch,Summer Control Type Day Sch;

Schedule:Week:Daily, Winter Control Type Week Sch,
   Winter Control Type Day Sch,Winter Control Type Day Sch,Winter Control Type Day Sch,
   Winter Control Type Day Sch,Winter Control Type Day Sch,Winter Control Type Day Sch,
   Winter Control Type Day Sch,Winter Control Type Day Sch,Winter Control Type Day Sch,
   Winter Control Type Day Sch,Winter Control Type Day Sch,Winter Control Type Day Sch;

Schedule:Week:Daily, Summer Control Type Week Sch - cool,
   Summer Control Type Day Sch - cool,Summer Control Type Day Sch - cool,Summer Control Type Day Sch - cool,
   Summer Control Type Day Sch - cool,Summer Control Type Day Sch - cool,Summer Control Type Day Sch - cool,
   Summer Control Type Day Sch - cool,Summer Control Type Day Sch - cool,Summer Control Type Day Sch - cool,
   Summer Control Type Day Sch - cool,Summer Control Type Day Sch - cool,Summer Control Type Day Sch - cool;

Schedule:Week:Daily, Winter Control Type Week Sch - heat,
   Winter Control Type Day Sch - heat,Winter Control Type Day Sch - heat,Winter Control Type Day Sch - heat,
   Winter Control Type Day Sch - heat,Winter Control Type Day Sch - heat,Winter Control Type Day Sch - heat,
   Winter Control Type Day Sch - heat,Winter Control Type Day Sch - heat,Winter Control Type Day Sch - heat,
   Winter Control Type Day Sch - heat,Winter Control Type Day Sch - heat,Winter Control Type Day Sch - heat;

!Material:InfraredTransparent,
!IRTMaterial; !- Name

!Construction,
!IRTSurface,  !- Name
!IRTMaterial; !- Outside Layer





Material:NoMass, 
LinearBridgingLayer,                  ! Material Name
Rough,                                ! Roughness
0.6267 ,                              ! Resistance {M**2K/W} will give Total Resistance 1
0.0100000 ,                           ! Thermal Absorptance
0.0100000 ,                           ! Solar Absorptance
0.0100000 ;                           ! Visible Absorptance

Construction,
LinearBridgingConstruction,           !- Name
LinearBridgingLayer;                  !- Layer

Schedule:Compact,
TypOperativeTempControlSch,
Temperature,
Through: 31 Dec,
For: SummerDesignDay WinterDesignDay,
Until: 24:00, 0.0,
For: AllOtherDays,
Until: 24:00, 0.5;

Schedule:Compact, 
      OnWinterDesignDay,                          ! Name
      Any Number,                                 
      Through: 12/31,                             
      For: WinterDesignDay,                       ! All days in year
      Until: 24:00, 1,
      For: AllOtherDays,
      Until: 24:00, 0;     

Schedule:Compact, 
      OnSummerDesignDay,                          ! Name
      Any Number,                                 
      Through: 12/31,                             
      For: SummerDesignDay,                       ! All days in year
      Until: 24:00, 1,
      For: AllOtherDays,
      Until: 24:00, 0;     

Material:InfraredTransparent,
IRTMaterial; !- Name

Construction,
IRTSurface,  !- Name
IRTMaterial; !- Outside Layer


! Profile: Off
Schedule:Day:Interval, 11 , Any number, No, 
24:00,  0;

! Profile: SIA_IndividualOffice
Schedule:Day:List, 10003 , Any number, No, 
60,
0,
0,
0,
0,
0,
0,
0,
.2,
.6,
1,
1,
.8,
.45,
.65,
1,
.8,
.6,
.2,
0,
0,
0,
0,
0,
0;

! Schedule: On 24/7
Schedule:Compact, 
On 24/7, 
Any Number,
Through: 12/31,
For: AllDays,   
Until: 24:00,   1 ;


! Schedule: Default Air Velocity for Comfort Calculations
Schedule:Compact, 
Default Air Velocity for Comfort Calculations, 
Any Number,
Through: 12/31,
For: AllDays,   
Until: 24:00,   0.1370 ;


! Schedule: SIA_IndividualOffice_Occ
Schedule:Week:Daily, SIA_IndividualOffice_Occ_Jan,!- A Schedule:Week:Daily contains 12 DAYSCHEDULES, one for each day type
   11,                                            !- Sunday
   10003,                                         !- Monday
   10003,                                         !- Tuesday
   10003,                                         !- Wednesday
   10003,                                         !- Thursday
   10003,                                         !- Friday
   11,                                            !- Saturday
   11,                                            !- Holiday
   10003,                                         !- SummerDesignDay
   11,                                            !- WinterDesignDay
   10003,                                         !- CustomDay1
   10003;                                         !- CustomDay2

Schedule:Week:Daily, SIA_IndividualOffice_Occ_Feb,!- A Schedule:Week:Daily contains 12 DAYSCHEDULES, one for each day type
   11,                                            !- Sunday
   10003,                                         !- Monday
   10003,                                         !- Tuesday
   10003,                                         !- Wednesday
   10003,                                         !- Thursday
   10003,                                         !- Friday
   11,                                            !- Saturday
   11,                                            !- Holiday
   10003,                                         !- SummerDesignDay
   11,                                            !- WinterDesignDay
   10003,                                         !- CustomDay1
   10003;                                         !- CustomDay2

Schedule:Week:Daily, SIA_IndividualOffice_Occ_Mar,!- A Schedule:Week:Daily contains 12 DAYSCHEDULES, one for each day type
   11,                                            !- Sunday
   10003,                                         !- Monday
   10003,                                         !- Tuesday
   10003,                                         !- Wednesday
   10003,                                         !- Thursday
   10003,                                         !- Friday
   11,                                            !- Saturday
   11,                                            !- Holiday
   10003,                                         !- SummerDesignDay
   11,                                            !- WinterDesignDay
   10003,                                         !- CustomDay1
   10003;                                         !- CustomDay2

Schedule:Week:Daily, SIA_IndividualOffice_Occ_Apr,!- A Schedule:Week:Daily contains 12 DAYSCHEDULES, one for each day type
   11,                                            !- Sunday
   10003,                                         !- Monday
   10003,                                         !- Tuesday
   10003,                                         !- Wednesday
   10003,                                         !- Thursday
   10003,                                         !- Friday
   11,                                            !- Saturday
   11,                                            !- Holiday
   10003,                                         !- SummerDesignDay
   11,                                            !- WinterDesignDay
   10003,                                         !- CustomDay1
   10003;                                         !- CustomDay2

Schedule:Week:Daily, SIA_IndividualOffice_Occ_May,!- A Schedule:Week:Daily contains 12 DAYSCHEDULES, one for each day type
   11,                                            !- Sunday
   10003,                                         !- Monday
   10003,                                         !- Tuesday
   10003,                                         !- Wednesday
   10003,                                         !- Thursday
   10003,                                         !- Friday
   11,                                            !- Saturday
   11,                                            !- Holiday
   10003,                                         !- SummerDesignDay
   11,                                            !- WinterDesignDay
   10003,                                         !- CustomDay1
   10003;                                         !- CustomDay2

Schedule:Week:Daily, SIA_IndividualOffice_Occ_Jun,!- A Schedule:Week:Daily contains 12 DAYSCHEDULES, one for each day type
   11,                                            !- Sunday
   10003,                                         !- Monday
   10003,                                         !- Tuesday
   10003,                                         !- Wednesday
   10003,                                         !- Thursday
   10003,                                         !- Friday
   11,                                            !- Saturday
   11,                                            !- Holiday
   10003,                                         !- SummerDesignDay
   11,                                            !- WinterDesignDay
   10003,                                         !- CustomDay1
   10003;                                         !- CustomDay2

Schedule:Week:Daily, SIA_IndividualOffice_Occ_Jul,!- A Schedule:Week:Daily contains 12 DAYSCHEDULES, one for each day type
   11,                                            !- Sunday
   10003,                                         !- Monday
   10003,                                         !- Tuesday
   10003,                                         !- Wednesday
   10003,                                         !- Thursday
   10003,                                         !- Friday
   11,                                            !- Saturday
   11,                                            !- Holiday
   10003,                                         !- SummerDesignDay
   11,                                            !- WinterDesignDay
   10003,                                         !- CustomDay1
   10003;                                         !- CustomDay2

Schedule:Week:Daily, SIA_IndividualOffice_Occ_Aug,!- A Schedule:Week:Daily contains 12 DAYSCHEDULES, one for each day type
   11,                                            !- Sunday
   10003,                                         !- Monday
   10003,                                         !- Tuesday
   10003,                                         !- Wednesday
   10003,                                         !- Thursday
   10003,                                         !- Friday
   11,                                            !- Saturday
   11,                                            !- Holiday
   10003,                                         !- SummerDesignDay
   11,                                            !- WinterDesignDay
   10003,                                         !- CustomDay1
   10003;                                         !- CustomDay2

Schedule:Week:Daily, SIA_IndividualOffice_Occ_Sep,!- A Schedule:Week:Daily contains 12 DAYSCHEDULES, one for each day type
   11,                                            !- Sunday
   10003,                                         !- Monday
   10003,                                         !- Tuesday
   10003,                                         !- Wednesday
   10003,                                         !- Thursday
   10003,                                         !- Friday
   11,                                            !- Saturday
   11,                                            !- Holiday
   10003,                                         !- SummerDesignDay
   11,                                            !- WinterDesignDay
   10003,                                         !- CustomDay1
   10003;                                         !- CustomDay2

Schedule:Week:Daily, SIA_IndividualOffice_Occ_Oct,!- A Schedule:Week:Daily contains 12 DAYSCHEDULES, one for each day type
   11,                                            !- Sunday
   10003,                                         !- Monday
   10003,                                         !- Tuesday
   10003,                                         !- Wednesday
   10003,                                         !- Thursday
   10003,                                         !- Friday
   11,                                            !- Saturday
   11,                                            !- Holiday
   10003,                                         !- SummerDesignDay
   11,                                            !- WinterDesignDay
   10003,                                         !- CustomDay1
   10003;                                         !- CustomDay2

Schedule:Week:Daily, SIA_IndividualOffice_Occ_Nov,!- A Schedule:Week:Daily contains 12 DAYSCHEDULES, one for each day type
   11,                                            !- Sunday
   10003,                                         !- Monday
   10003,                                         !- Tuesday
   10003,                                         !- Wednesday
   10003,                                         !- Thursday
   10003,                                         !- Friday
   11,                                            !- Saturday
   11,                                            !- Holiday
   10003,                                         !- SummerDesignDay