! File generated by DesignBuilder - 7.0.2.006 20/03/2024 - 13:38:39
! Source file: \\IPESESERV5\Desktop Share\cterrier\Documents\DesignBuilder Data\python_tutorial.dsb

! Geometry convention template : External measurements
! Zone geometry and surface areas : 2-Outer
! Zone volume calculation method : 1-Inner
! Zone floor area calculation method : 1-Inner
! Window to wall ratio method : 1-Inner

Version, 9.4.0.002;                               !- Version Identifier

Site:Location,Python_tutorial (01-01:31-12)  (01-01:31-12),  !- Location Name
   51.15,                                         !- Latitude
   -0.18,                                         !- Longitude
   0,                                             !- Time Zone
   62;                                            !- Elevation {m}

Site:GroundTemperature:BuildingSurface,           !- Annual ground temperatures - 1 value for each month
   18,                                            !- Jan ground temperature
   18,                                            !- Feb ground temperature
   18,                                            !- Mar ground temperature
   18,                                            !- Apr ground temperature
   18,                                            !- May ground temperature
   18,                                            !- Jun ground temperature
   18,                                            !- Jul ground temperature
   18,                                            !- Aug ground temperature
   18,                                            !- Sep ground temperature
   18,                                            !- Oct ground temperature
   18,                                            !- Nov ground temperature
   18;                                            !- Dec ground temperature

Site:GroundTemperature:Deep,                      !- Annual ground temperatures - 1 value for each month
   14,                                            !- Jan deep ground temperature
   14,                                            !- Feb deep ground temperature
   14,                                            !- Mar deep ground temperature
   14,                                            !- Apr deep ground temperature
   14,                                            !- May deep ground temperature
   14,                                            !- Jun deep ground temperature
   14,                                            !- Jul deep ground temperature
   14,                                            !- Aug deep ground temperature
   14,                                            !- Sep deep ground temperature
   14,                                            !- Oct deep ground temperature
   14,                                            !- Nov deep ground temperature
   14;                                            !- Dec deep ground temperature

Site:GroundTemperature:Shallow,                   !- Annual ground temperatures - 1 value for each month
   14,                                            !- Jan shallow ground temperature
   14,                                            !- Feb shallow ground temperature
   14,                                            !- Mar shallow ground temperature
   14,                                            !- Apr shallow ground temperature
   14,                                            !- May shallow ground temperature
   14,                                            !- Jun shallow ground temperature
   14,                                            !- Jul shallow ground temperature
   14,                                            !- Aug shallow ground temperature
   14,                                            !- Sep shallow ground temperature
   14,                                            !- Oct shallow ground temperature
   14,                                            !- Nov shallow ground temperature
   14;                                            !- Dec shallow ground temperature

Site:GroundTemperature:FCfactorMethod,            !- Annual ground temperatures - 1 value for each month
   4.16,                                          !- January FCfactorMethod ground temperature {C}
   5.30,                                          !- Februry FCfactorMethod ground temperature {C}
   7.51,                                          !- March FCfactorMethod ground temperature {C}
   9.61,                                          !- April FCfactorMethod ground temperature {C}
   13.58,                                         !- May FCfactorMethod ground temperature {C}
   15.67,                                         !- June FCfactorMethod ground temperature {C}
   16.24,                                         !- July FCfactorMethod ground temperature {C}
   15.18,                                         !- August FCfactorMethod ground temperature {C}
   12.74,                                         !- September FCfactorMethod ground temperature {C}
   9.69,                                          !- October FCfactorMethod ground temperature {C}
   6.69,                                          !- November FCfactorMethod ground temperature {C}
   4.70;                                          !- December FCfactorMethod ground temperature {C}

Site:GroundReflectance,                           !- Annual ground reflectances - 1 value for each month
   0.2,                                           !- Jan ground reflectance
   0.2,                                           !- Feb ground reflectance
   0.2,                                           !- Mar ground reflectance
   0.2,                                           !- Apr ground reflectance
   0.2,                                           !- May ground reflectance
   0.2,                                           !- Jun ground reflectance
   0.2,                                           !- Jul ground reflectance
   0.2,                                           !- Aug ground reflectance
   0.2,                                           !- Sep ground reflectance
   0.2,                                           !- Oct ground reflectance
   0.2,                                           !- Nov ground reflectance
   0.2;                                           !- Dec ground reflectance

Site:GroundReflectance:SnowModifier,
   2.0,                                           !- Ground Reflected Solar Modifier
   2.0;                                           !- Daylighting Ground Reflected Solar Modifier

SimulationControl,
   Yes,                                           !- Do the zone sizing calculation
   Yes,                                           !- Do the system sizing calculation
   Yes,                                           !- Do the plant sizing calculation
   Yes,                                           !- Do the design day calculation
   No;                                            !- Do the weather file calculation


SizingPeriod:DesignDay, Winter Design Day in Python_tutorial (01-01:31-12),  !- Design Day Name
   1,                                             !- Month
   15,                                            !- Day of Month
   WinterDesignDay,                               !- Day Type -- used for schedules
   -4.4,                                          !- Max Dry-Bulb {C}
   0,                                             !- Daily Temp Range {C}
   ,                                              !- Dry-Bulb Temperature Range Modifier Type
   ,                                              !- Dry-Bulb Temperature Range Modifier Schedule
   WetBulb,                                       !- Humidity Condition Type
   -4.4,                                          !- Wet-Bulb at Max {C}
   ,                                              !- Humidity Condition Day Schedule Name
   ,                                              !- Humidity Ratio at Maximum Dry-Bulb
   ,                                              !- Enthalpy Ratio at Maximum Dry-Bulb
   ,                                              !- Daily Wet-Bulb Temperature Range
   100582.4,                                      !- Barometric Pressure {N/M**2}
   1.2,                                           !- Wind Speed {M/Sec}
   70,                                            !- Wind Direction {Degrees N=0, S=180}
   No,                                            !- Rain Indicator
   No,                                            !- Snow on ground indicator
   No,                                            !- Daylight Savings Time Indicator
   ,                                              !- Solar Model Indicator
   ,                                              !- Beam Solar Day Schedule Name
   ,                                              !- Diffuse Solar Day Schedule Name
   ,                                              !- ASHRAE Clear Sky Optical Depth for Beam Irradiance (taub)
   ,                                              !- ASHRAE Clear Sky Optical Depth for Diffuse Irradiance (taud)
   0;                                             !- Clearness {0.0 to 1.2} - gives no sun (but does include long wave radiant heat exchange with sky)

Timestep, 2;                                      !- Timesteps/hour

ConvergenceLimits,
   1,                                             !- Minimum System Time Step (0=same as zone time step)
   20;                                            !- Maximum HVAC Iterations (1=min, 20=default)

ScheduleTypeLimits, Any Number;                         ! Not limited
ScheduleTypeLimits, Fraction,     0.0, 1.0, CONTINUOUS;
ScheduleTypeLimits, Temperature,  -60, 200, CONTINUOUS;
ScheduleTypeLimits, Control Type,   0,   4, DISCRETE;
ScheduleTypeLimits, On/Off,         0,   1, DISCRETE;

Schedule:Compact, 
      On,                                         ! Name
      Any Number,                                 ! Type
      Through: 12/31,                             ! Type
      For: AllDays,                               ! All days in year
      Until: 24:00,                               ! All hours in day
       1;     

Schedule:Compact, 
      Off,                                        ! Name
      Any Number,                                 ! Type
      Through: 12/31,                             ! Type
      For: AllDays,                               ! All days in year
      Until: 24:00,                               ! All hours in day
       0;     

Schedule:Compact, 
      Work efficiency,                            ! Name
      Any Number,                                 ! Type
      Through: 12/31,                             ! Type
      For: AllDays,                               ! All days in year
      Until: 24:00,                               ! All hours in day
       0;     

Schedule:Compact,
      OpaqueShade,                                ! Name
      Any Number,                                 ! Type
      Through: 12/31,                             ! Type
      For: AllDays,                               ! All days in year
      Until: 24:00,                               ! All hours in day
       0;     
       
Schedule:Compact,
    Zone Comfort Control Type Sched,              !- Name
    Control Type,                                 !- Schedule Type Limits Name
    Through: 12/31,                               !- Field 1
    For: AllDays,                                 !- Field 2
    Until: 24:00,                                 !- Field 3
    4;                                            !- Field 4

Schedule:Compact,
    Design Days Only,                             !- Name
    Any Number,                                   !- Schedule Type Limits Name
    Through: 12/31,                               !- Field 1
    For: SummerDesignDay WinterDesignDay,         !- Field 2
    Until: 24:00,                                 !- Field 3
    1,                                            !- Field 4
    For: AllOtherDays,                            !- Field 2
    Until: 24:00,                                 !- Field 3
    0;
      
! off heating day
Schedule:Day:Hourly,  0, Any Number,
   0,0,0,0,0,0,0,0,0,0,0,0,0,0,0,0,0,0,0,0,0,0,0,0;

! off cooling day
Schedule:Day:Hourly,  50, Any Number,
   50,50,50,50,50,50,50,50,50,50,50,50,50,50,50,50,50,50,50,50,50,50,50,50;

! used in seasonal schedules
Schedule:Day:Hourly,  Off, Fraction,
   0,0,0,0,0,0,0,0,0,0,0,0,0,0,0,0,0,0,0,0,0,0,0,0;

Schedule:Week:Daily, Off,
   Off,Off,Off,Off,
   Off,Off,Off,Off,
   Off,Off,Off,Off;

! -------------------- Control type schedules (for heating & cooling) ----------------------

Schedule:Day:Hourly, Summer Control Type Day Sch, Control Type,
   4,4,4,4,4,4,4,4,4,4,4,4,4,4,4,4,4,4,4,4,4,4,4,4;

Schedule:Day:Hourly, Winter Control Type Day Sch, Control Type,
   4,4,4,4,4,4,4,4,4,4,4,4,4,4,4,4,4,4,4,4,4,4,4,4;

Schedule:Day:Hourly, Summer Control Type Day Sch - cool, Control Type,
   2,2,2,2,2,2,2,2,2,2,2,2,2,2,2,2,2,2,2,2,2,2,2,2;

Schedule:Day:Hourly, Winter Control Type Day Sch - heat, Control Type,
   1,1,1,1,1,1,1,1,1,1,1,1,1,1,1,1,1,1,1,1,1,1,1,1;

Schedule:Week:Daily, Summer Control Type Week Sch,
   Summer Control Type Day Sch,Summer Control Type Day Sch,Summer Control Type Day Sch,
   Summer Control Type Day Sch,Summer Control Type Day Sch,Summer Control Type Day Sch,
   Summer Control Type Day Sch,Summer Control Type Day Sch,Summer Control Type Day Sch,
   Summer Control Type Day Sch,Summer Control Type Day Sch,Summer Control Type Day Sch;

Schedule:Week:Daily, Winter Control Type Week Sch,
   Winter Control Type Day Sch,Winter Control Type Day Sch,Winter Control Type Day Sch,
   Winter Control Type Day Sch,Winter Control Type Day Sch,Winter Control Type Day Sch,
   Winter Control Type Day Sch,Winter Control Type Day Sch,Winter Control Type Day Sch,
   Winter Control Type Day Sch,Winter Control Type Day Sch,Winter Control Type Day Sch;

Schedule:Week:Daily, Summer Control Type Week Sch - cool,
   Summer Control Type Day Sch - cool,Summer Control Type Day Sch - cool,Summer Control Type Day Sch - cool,
   Summer Control Type Day Sch - cool,Summer Control Type Day Sch - cool,Summer Control Type Day Sch - cool,
   Summer Control Type Day Sch - cool,Summer Control Type Day Sch - cool,Summer Control Type Day Sch - cool,
   Summer Control Type Day Sch - cool,Summer Control Type Day Sch - cool,Summer Control Type Day Sch - cool;

Schedule:Week:Daily, Winter Control Type Week Sch - heat,
   Winter Control Type Day Sch - heat,Winter Control Type Day Sch - heat,Winter Control Type Day Sch - heat,
   Winter Control Type Day Sch - heat,Winter Control Type Day Sch - heat,Winter Control Type Day Sch - heat,
   Winter Control Type Day Sch - heat,Winter Control Type Day Sch - heat,Winter Control Type Day Sch - heat,
   Winter Control Type Day Sch - heat,Winter Control Type Day Sch - heat,Winter Control Type Day Sch - heat;

!Material:InfraredTransparent,
!IRTMaterial; !- Name

!Construction,
!IRTSurface,  !- Name
!IRTMaterial; !- Outside Layer





Material:NoMass, 
LinearBridgingLayer,                  ! Material Name
Rough,                                ! Roughness
0.6267 ,                              ! Resistance {M**2K/W} will give Total Resistance 1
0.0100000 ,                           ! Thermal Absorptance
0.0100000 ,                           ! Solar Absorptance
0.0100000 ;                           ! Visible Absorptance

Construction,
LinearBridgingConstruction,           !- Name
LinearBridgingLayer;                  !- Layer

Schedule:Compact,
TypOperativeTempControlSch,
Temperature,
Through: 31 Dec,
For: SummerDesignDay WinterDesignDay,
Until: 24:00, 0.0,
For: AllOtherDays,
Until: 24:00, 0.5;

Schedule:Compact, 
      OnWinterDesignDay,                          ! Name
      Any Number,                                 
      Through: 12/31,                             
      For: WinterDesignDay,                       ! All days in year
      Until: 24:00, 1,
      For: AllOtherDays,
      Until: 24:00, 0;     

Schedule:Compact, 
      OnSummerDesignDay,                          ! Name
      Any Number,                                 
      Through: 12/31,                             
      For: SummerDesignDay,                       ! All days in year
      Until: 24:00, 1,
      For: AllOtherDays,
      Until: 24:00, 0;     


! Schedule: On 24/7
Schedule:Compact, 
On 24/7, 
Any Number,
Through: 12/31,
For: AllDays,   
Until: 24:00,   1 ;


WindowMaterial:Gas,1002,                          !- AIR 13MM
   Air,                                           !- Gas type (Air - Argon - Krypton - Xenon - SF6 - Custom)
    .013;                                         !- Thickness {m}

WindowMaterial:Gas,Half thickness 1002,           !- AIR 13MM
   Air,                                           !- Gas type (Air - Argon - Krypton - Xenon - SF6 - Custom)
    .0065;                                        !- Thickness {m}



WindowMaterial:Glazing,2,                         !- Generic CLEAR 3MM
   SpectralAverage,                               !- Optical data type {SpectralAverage or Spectral}
   ,                                              !- Name of spectral data set when Optical Data Type = Spectral
   .003,                                          !- Thickness {m}
   .837,                                          !- Solar transmittance at normal incidence
   .075,                                          !- Solar reflectance at normal incidence: front side
   .075,                                          !- Solar reflectance at normal incidence: back side
   .898,                                          !- Visible transmittance at normal incidence
   .081,                                          !- Visible reflectance at normal incidence: front side
   .081,                                          !- Visible reflectance at normal incidence: back side
   .0,                                            !- IR transmittance at normal incidence
   .84,                                           !- IR emissivity: front side
   .84,                                           !- IR emissivity: back side
   .9,                                            !- Conductivity {W/m-K}
   1;                                             !- Dirt Correction Factor for Solar and Visible Transmittance

WindowMaterial:Glazing,38,                        !- Generic PYR B CLEAR 3MM
   SpectralAverage,                               !- Optical data type {SpectralAverage or Spectral}
   ,                                              !- Name of spectral data set when Optical Data Type = Spectral
   .003,                                          !- Thickness {m}
   .740,                                          !- Solar transmittance at normal incidence
   .090,                                          !- Solar reflectance at normal incidence: front side
   .100,                                          !- Solar reflectance at normal incidence: back side
   .820,                                          !- Visible transmittance at normal incidence
   .110,                                          !- Visible reflectance at normal incidence: front side
   .120,                                          !- Visible reflectance at normal incidence: back side
   .0,                                            !- IR transmittance at normal incidence
   .84,                                           !- IR emissivity: front side
   .20,                                           !- IR emissivity: back side
   .9,                                            !- Conductivity {W/m-K}
   1;                                             !- Dirt Correction Factor for Solar and Visible Transmittance
! Urea Formaldehyde Foam- thickness 0,1327
Material, Urea Formaldehyde Foam_.1327,
   Rough,                                         !- Roughness
   .1327,                                         !- Thickness {m}
   0.04,                                          !- Conductivity {w/m-K}
   10,                                            !- Density {kg/m3}
   1400,                                          !- Specific Heat {J/kg-K}
   0.9,                                           !- Thermal Emittance
   0.6,                                           !- Solar Absorptance
   0.6;                                           !- Visible Absorptance

! Cast Concrete- thickness 0,1
Material, Cast Concrete_.1,
   Rough,                                         !- Roughness
   .1,                                            !- Thickness {m}
   1.13,                                          !- Conductivity {w/m-K}
   2000,                                          !- Density {kg/m3}
   1000,                                          !- Specific Heat {J/kg-K}
   0.9,                                           !- Thermal Emittance
   0.6,                                           !- Solar Absorptance
   0.6;                                           !- Visible Absorptance

! Floor/Roof Screed- thickness 0,07
Material, Floor/Roof Screed_.07,
   Rough,                                         !- Roughness
   .07,                                           !- Thickness {m}
   0.41,                                          !- Conductivity {w/m-K}
   1200,                                          !- Density {kg/m3}
   840,                                           !- Specific Heat {J/kg-K}
   0.9,                                           !- Thermal Emittance
   0.73,                                          !- Solar Absorptance
   0.73;                                          !- Visible Absorptance

! Timber Flooring- thickness 0,03
Material, Timber Flooring_.03,
   Rough,                                         !- Roughness
   .03,                                           !- Thickness {m}
   0.14,                                          !- Conductivity {w/m-K}
   650,                                           !- Density {kg/m3}
   1200,                                          !- Specific Heat {J/kg-K}
   0.9,                                           !- Thermal Emittance
   0.78,                                          !- Solar Absorptance
   0.78;                                          !- Visible Absorptance

! Asphalt 1- thickness 0,01
Material, Asphalt 1_.01,
   Rough,                                         !- Roughness
   .01,                                           !- Thickness {m}
   0.7,                                           !- Conductivity {w/m-K}
   2100,                                          !- Density {kg/m3}
   1000,                                          !- Specific Heat {J/kg-K}
   0.9,                                           !- Thermal Emittance
   0.85,                                          !- Solar Absorptance
   0.9;                                           !- Visible Absorptance

! MW Glass Wool (rolls)- thickness 0,1445
Material, MW Glass Wool (rolls)_.1445,
   Rough,                                         !- Roughness
   .1445,                                         !- Thickness {m}
   0.04,                                          !- Conductivity {w/m-K}
   12,                                            !- Density {kg/m3}
   840,                                           !- Specific Heat {J/kg-K}
   0.9,                                           !- Thermal Emittance
   0.6,                                           !- Solar Absorptance
   0.6;                                           !- Visible Absorptance

! Plasterboard- thickness 0,013
Material, Plasterboard_.013,
   Rough,                                         !- Roughness
   .013,                                          !- Thickness {m}
   0.25,                                          !- Conductivity {w/m-K}
   2800,                                          !- Density {kg/m3}
   896,                                           !- Specific Heat {J/kg-K}
   0.9,                                           !- Thermal Emittance
   0.5,                                           !- Solar Absorptance
   0.5;                                           !- Visible Absorptance

! Brickwork Outer- thickness 0,1
Material, Brickwork Outer_.1,
   Rough,                                         !- Roughness
   .1,                                            !- Thickness {m}
   0.84,                                          !- Conductivity {w/m-K}
   1700,                                          !- Density {kg/m3}
   800,                                           !- Specific Heat {J/kg-K}
   0.9,                                           !- Thermal Emittance
   0.7,                                           !- Solar Absorptance
   0.7;                                           !- Visible Absorptance

! XPS Extruded Polystyrene  - CO2 Blowing- thickness 0,0795
Material, XPS Extruded Polystyrene  - CO2 Blowing_.0795,
   Rough,                                         !- Roughness
   .0795,                                         !- Thickness {m}
   0.034,                                         !- Conductivity {w/m-K}
   35,                                            !- Density {kg/m3}
   1400,                                          !- Specific Heat {J/kg-K}
   0.9,                                           !- Thermal Emittance
   0.6,                                           !- Solar Absorptance
   0.6;                                           !- Visible Absorptance

! Concrete Block (Medium)- thickness 0,1
Material, Concrete Block (Medium)_.1,
   Rough,                                         !- Roughness
   .1,                                            !- Thickness {m}
   0.51,                                          !- Conductivity {w/m-K}
   1400,                                          !- Density {kg/m3}
   1000,                                          !- Specific Heat {J/kg-K}
   0.9,                                           !- Thermal Emittance
   0.6,                                           !- Solar Absorptance
   0.6;                                           !- Visible Absorptance

! Gypsum Plastering- thickness 0,013
Material, Gypsum Plastering_.013,
   Rough,                                         !- Roughness
   .013,                                          !- Thickness {m}
   0.4,                                           !- Conductivity {w/m-K}
   1000,                                          !- Density {kg/m3}
   1000,                                          !- Specific Heat {J/kg-K}
   0.9,                                           !- Thermal Emittance
   0.5,                                           !- Solar Absorptance
   0.5;                                           !- Visible Absorptance


! Project ground floor
Construction, Project ground floor,
   Urea Formaldehyde Foam_.1327,                  !- .1327m
   Cast Concrete_.1,                              !- .1m
   Floor/Roof Screed_.07,                         !- .07m
   Timber Flooring_.03;                           !- .03m

! <Previous reversed>
Construction, Project ground floor_Rev,
   Timber Flooring_.03,                           !- .03m
   Floor/Roof Screed_.07,                         !- .07m
   Cast Concrete_.1,                              !- .1m
   Urea Formaldehyde Foam_.1327;                  !- .1327m

! Special material to represent an R-value for the next construction
Material:NoMass, 3_RVAL_3,                        !- Material name - Air gap >=25mm
   Rough,                                         !- Roughness
   .18,                                           !- Resistance {m2-K/w}
   0.9,                                           !- Thermal Emittance
   0.7,                                           !- Solar Absorptance
   0.7;                                           !- Visible Absorptance

! Project flat roof
Construction, Project flat roof,
   Asphalt 1_.01,                                 !- .01m
   MW Glass Wool (rolls)_.1445,                   !- .1445m
   3_RVAL_3,                                      !- R-value
   Plasterboard_.013;                             !- .013m

! Special material to represent an R-value for the next construction
Material:NoMass, 4_RVAL_2,                        !- Material name - Air gap >=25mm
   Rough,                                         !- Roughness
   .18,                                           !- Resistance {m2-K/w}
   0.9,                                           !- Thermal Emittance
   0.7,                                           !- Solar Absorptance
   0.7;                                           !- Visible Absorptance

! <Previous reversed>
Construction, Project flat roof_Rev,
   Plasterboard_.013,                             !- .013m
   4_RVAL_2,                                      !- R-value
   MW Glass Wool (rolls)_.1445,                   !- .1445m
   Asphalt 1_.01;                                 !- .01m

! Project wall
Construction, Project wall,
   Brickwork Outer_.1,                            !- .1m
   XPS Extruded Polystyrene  - CO2 Blowing_.0795, !- .0795m
   Concrete Block (Medium)_.1,                    !- .1m
   Gypsum Plastering_.013;                        !- .013m

! <Previous reversed>
Construction, Project wall_Rev,
   Gypsum Plastering_.013,                        !- .013m
   Concrete Block (Medium)_.1,                    !- .1m
   XPS Extruded Polystyrene  - CO2 Blowing_.0795, !- .0795m
   Brickwork Outer_.1;                            !- .1m



Construction,Project external glazing - 1001,     !- Project external glazing - Material layer names follow:
   38,                                            !- Generic PYR B CLEAR 3MM
   1002,                                          !- AIR 13MM
   2;                                             !- Generic CLEAR 3MM

HeatBalanceAlgorithm, 
   ConductionTransferFunction,                    !- Heat Balance Algorithm: CTF or CondFD